Circuit: * C:\Users\Msoul\Desktop\Analogue Project\Final Simulations\Complete_Design(DC).asc

WARNING: Less than two connections to node N009.  This node is used by S:U2:1.
WARNING: Less than two connections to node PIN1.  This node is used by Q1.
WARNING: Less than two connections to node PIN2.  This node is used by Q2.
WARNING: Less than two connections to node PIN3.  This node is used by Q3.
WARNING: Less than two connections to node PIN6.  This node is used by Q4.
WARNING: Less than two connections to node PIN5.  This node is used by Q5.
WARNING: Less than two connections to node PIN4.  This node is used by Q6.
Per .tran options, skipping operating point for transient analysis.
Heightened Def Con from 2.14976 to 2.14976

Date: Mon Mar 21 18:29:16 2016
Total elapsed time: 143.365 seconds.

tnom = 27
temp = 27
method = modified trap
totiter = 2645299
traniter = 2645299
tranpoints = 604704
accept = 461473
rejected = 143232
matrix size = 165
fillins = 109
solver = Normal
Thread vector: 71.5/44.3[4] 17.8/9.2[4] 7.3/3.5[4] 0.8/1.3[1]  2592/500
Matrix Compiler1: 12.78 KB object code size  4.9/2.0/[1.5]
Matrix Compiler2: 17.08 KB object code size  2.1/2.1/[1.6]


