Circuit: * C:\Users\Msoul\Desktop\Analogue Project\Final Simulations\Complete_Design.asc

WARNING: Less than two connections to node N009.  This node is used by S:U2:1.
WARNING: Less than two connections to node PIN1.  This node is used by Q1.
WARNING: Less than two connections to node PIN2.  This node is used by Q2.
WARNING: Less than two connections to node PIN3.  This node is used by Q3.
WARNING: Less than two connections to node PIN6.  This node is used by Q4.
WARNING: Less than two connections to node PIN5.  This node is used by Q5.
WARNING: Less than two connections to node PIN4.  This node is used by Q6.
Per .tran options, skipping operating point for transient analysis.

Date: Thu Mar 24 13:24:48 2016
Total elapsed time: 90.124 seconds.

tnom = 27
temp = 27
method = modified trap
totiter = 1381447
traniter = 1381447
tranpoints = 361905
accept = 273001
rejected = 88904
matrix size = 165
fillins = 109
solver = Normal
Thread vector: 98.3/47.9[4] 21.8/9.1[4] 7.8/3.0[4] 1.4/1.2[2]  2592/500
Matrix Compiler1: 12.78 KB object code size  4.9/2.0/[1.6]
Matrix Compiler2: 17.08 KB object code size  2.0/3.8/[2.0]


