Circuit: * C:\Users\Msoul\Desktop\Analogue Project\Final Simulations\Reality.asc

Per .tran options, skipping operating point for transient analysis.

Date: Thu Mar 24 13:33:23 2016
Total elapsed time: 6.758 seconds.

tnom = 27
temp = 27
method = modified trap
totiter = 362011
traniter = 362011
tranpoints = 86003
accept = 64952
rejected = 21051
matrix size = 49
fillins = 35
solver = Normal
Thread vector: 22.3/13.2[4] 7.0/3.1[4] 2.4/1.3[4] 0.3/0.7[1]  2592/500
Matrix Compiler1: 3.83 KB object code size  1.4/0.5/[0.4]
Matrix Compiler2: 5.11 KB object code size  0.6/0.7/[0.4]


